@<TRIPOS>MOLECULE
prup3_ps_A.pdb
61 60 1 0 0
SMALL
NO_CHARGES


@<TRIPOS>ATOM
      1 C1        -30.0120   41.8440  -23.4780 C.3       1 UNK    0.0000
      2 H11       -30.7580   41.7220  -22.7020 H         1 UNK    0.0000
      3 H12       -29.1360   41.2840  -23.1570 H         1 UNK    0.0000
      4 O1        -29.6480   43.2350  -23.5890 O.3       1 UNK    0.0000
      5 H13       -29.3550   43.5170  -22.6920 H         1 UNK    0.0000
      6 C2        -30.5290   41.2310  -24.8070 C.3       1 UNK    0.0000
      7 H21       -30.2800   40.1680  -24.8000 H         1 UNK    0.0000
      8 N2        -29.8360   41.8740  -25.9260 N.4       1 UNK    0.0000
      9 H22       -30.0430   42.8590  -25.9920 H         1 UNK    0.0000
     10 C3        -32.0710   41.3920  -24.9360 C.3       1 UNK    0.0000
     11 H31       -32.2880   42.4540  -25.0810 H         1 UNK    0.0000
     12 O3        -32.7640   40.9610  -23.7570 O.3       1 UNK    0.0000
     13 H32       -33.7090   41.0160  -24.0410 H         1 UNK    0.0000
     14 C4        -32.6810   40.6090  -26.1320 C.3       1 UNK    0.0000
     15 C5        -32.4340   39.0860  -26.0690 C.3       1 UNK    0.0000
     16 H51       -32.8000   38.7120  -25.1140 H         1 UNK    0.0000
     17 H52       -31.3610   38.8920  -26.1030 H         1 UNK    0.0000
     18 C6        -33.0870   38.3090  -27.2370 C.3       1 UNK    0.0000
     19 H61       -32.7100   38.7110  -28.1810 H         1 UNK    0.0000
     20 H62       -34.1720   38.4390  -27.2400 H         1 UNK    0.0000
     21 C7        -32.7410   36.8050  -27.1610 C.3       1 UNK    0.0000
     22 H71       -33.0260   36.3330  -28.1030 H         1 UNK    0.0000
     23 H72       -31.6600   36.6870  -27.0510 H         1 UNK    0.0000
     24 C8        -33.4740   36.0850  -26.0090 C.3       1 UNK    0.0000
     25 H81       -33.4150   36.6590  -25.0840 H         1 UNK    0.0000
     26 H82       -34.5330   36.0110  -26.2680 H         1 UNK    0.0000
     27 C9        -32.9000   34.6790  -25.7230 C.3       1 UNK    0.0000
     28 H91       -31.8760   34.7600  -25.3510 H         1 UNK    0.0000
     29 H92       -32.8690   34.0880  -26.6400 H         1 UNK    0.0000
     30 C10       -33.7880   33.9860  -24.6700 C.3       1 UNK    0.0000
     31 1H10      -33.7100   34.5260  -23.7260 H         1 UNK    0.0000
     32 2H10      -34.8180   34.0760  -25.0110 H         1 UNK    0.0000
     33 C11       -33.4330   32.4950  -24.4380 C.3       1 UNK    0.0000
     34 1H11      -32.4150   32.4320  -24.0450 H         1 UNK    0.0000
     35 2H11      -33.4380   31.9550  -25.3880 H         1 UNK    0.0000
     36 C12       -34.3990   31.7960  -23.4420 C.3       1 UNK    0.0000
     37 1H12      -34.3770   32.3280  -22.4890 H         1 UNK    0.0000
     38 2H12      -34.0380   30.7830  -23.2480 H         1 UNK    0.0000
     39 C13       -35.8550   31.7150  -23.9650 C.3       1 UNK    0.0000
     40 1H13      -36.1880   32.7030  -24.2630 H         1 UNK    0.0000
     41 2H13      -35.8920   31.0800  -24.8530 H         1 UNK    0.0000
     42 C14       -36.8470   31.1670  -22.9150 C.3       1 UNK    0.0000
     43 1H14      -36.6390   30.1060  -22.7630 H         1 UNK    0.0000
     44 2H14      -36.7030   31.6640  -21.9530 H         1 UNK    0.0000
     45 C15       -38.3200   31.3290  -23.3720 C.3       1 UNK    0.0000
     46 1H15      -38.9480   30.7160  -22.7270 H         1 UNK    0.0000
     47 2H15      -38.4200   30.9440  -24.3910 H         1 UNK    0.0000
     48 C16       -38.8270   32.7920  -23.3100 C.3       1 UNK    0.0000
     49 1H16      -38.8900   33.1120  -22.2690 H         1 UNK    0.0000
     50 2H16      -38.1300   33.4520  -23.8220 H         1 UNK    0.0000
     51 C17       -40.2060   32.9830  -23.9610 C.3       1 UNK    0.0000
     52 1H17      -40.2240   32.4750  -24.9200 H         1 UNK    0.0000
     53 2H17      -40.9780   32.5320  -23.3370 H         1 UNK    0.0000
     54 C18       -40.5070   34.4780  -24.1910 C.3       1 UNK    0.0000
     55 1H18      -41.5480   34.6160  -24.4870 H         1 UNK    0.0000
     56 2H18      -40.3330   35.0600  -23.2840 H         1 UNK    0.0000
     57 3H18      -39.8710   34.8810  -24.9840 H         1 UNK    0.0000
     58 H41       -32.2440   40.9900  -27.0550 H         1 UNK    0.0000
     59 O2        -34.0980   40.8420  -26.1220 O.3       1 UNK    0.0000
     60 H3        -34.4680   40.5420  -26.9770 H         1 UNK    0.0000
     61 H21       -29.2200   41.3860  -26.5600 H         1 UNK    0.0000
@<TRIPOS>BOND
     1    1    2 1
     2    1    3 1
     3    1    4 1
     4    1    6 1
     5    4    5 1
     6    6    7 1
     7    6    8 1
     8    6   10 1
     9    8    9 1
    10    8   61 1
    11   10   11 1
    12   10   12 1
    13   10   14 1
    14   12   13 1
    15   14   15 1
    16   14   58 1
    17   14   59 1
    18   15   16 1
    19   15   17 1
    20   15   18 1
    21   18   19 1
    22   18   20 1
    23   18   21 1
    24   21   22 1
    25   21   23 1
    26   21   24 1
    27   24   25 1
    28   24   26 1
    29   24   27 1
    30   27   28 1
    31   27   29 1
    32   27   30 1
    33   30   31 1
    34   30   32 1
    35   30   33 1
    36   33   34 1
    37   33   35 1
    38   33   36 1
    39   36   37 1
    40   36   38 1
    41   36   39 1
    42   39   40 1
    43   39   41 1
    44   39   42 1
    45   42   43 1
    46   42   44 1
    47   42   45 1
    48   45   46 1
    49   45   47 1
    50   45   48 1
    51   48   49 1
    52   48   50 1
    53   48   51 1
    54   51   52 1
    55   51   53 1
    56   51   54 1
    57   54   55 1
    58   54   56 1
    59   54   57 1
    60   59   60 1
@<TRIPOS>SUBSTRUCTURE
     1 UNK     1 RESIDUE           4 O     UNK     0 ROOT
