@<TRIPOS>MOLECULE
ligB.pdb
 104 107 0 0 0
SMALL
GASTEIGER

@<TRIPOS>ATOM
      1  N51      -37.5190   21.2850  -24.1900 N.ar  101  LIG101     -0.2449
      2  C52      -37.2640   21.4260  -25.5030 C.ar  101  LIG101      0.0929
      3  C53      -36.6610   22.5410  -26.1510 C.ar  101  LIG101      0.0713
      4  N54      -36.5530   22.3390  -27.4980 N.ar  101  LIG101     -0.3019
      5  C56      -37.5770   20.5130  -26.4840 C.ar  101  LIG101      0.0003
      6  C57      -38.2770   19.3610  -26.1450 C.ar  101  LIG101     -0.0455
      7  C58      -38.5890   19.1910  -24.7890 C.ar  101  LIG101      0.0042
      8  C59      -39.3080   18.0670  -24.3750 C.ar  101  LIG101     -0.0110
      9  C60      -39.5980   17.8840  -23.0270 C.ar  101  LIG101      0.1176
     10  C61      -39.1900   18.8220  -22.0860 C.ar  101  LIG101     -0.0181
     11  C62      -38.5040   19.9640  -22.5000 C.ar  101  LIG101     -0.0323
     12  C63      -38.1970   20.1680  -23.8440 C.ar  101  LIG101      0.0720
     13  C64      -36.2580   23.7000  -25.5520 C.ar  101  LIG101     -0.0291
     14  C65      -35.6290   24.6910  -26.3030 C.ar  101  LIG101      0.0052
     15  C66      -35.4370   24.4350  -27.6720 C.ar  101  LIG101      0.0486
     16  C67      -35.9680   23.2120  -28.3370 C.ar  101  LIG101      0.2578
     17  C1       -38.0680   28.5070  -25.4300 C.3   101  LIG101      0.0650
     18  H11      -38.9010   29.1310  -25.1170 H     101  LIG101      0.0576
     19  H12      -38.0890   28.4410  -26.5150 H     101  LIG101      0.0576
     20  O1       -38.2110   27.1820  -24.8740 O.3   101  LIG101     -0.3931
     21  H13      -38.9910   26.7780  -25.3560 H     101  LIG101      0.2095
     22  C2       -36.7420   29.1760  -25.0110 C.3   101  LIG101      0.0745
     23  H21      -36.5620   30.0230  -25.6780 H     101  LIG101      0.0547
     24  N2       -35.6170   28.2520  -25.1460 N.am  101  LIG101     -0.3050
     25  H22      -35.3170   27.8690  -24.2650 H     101  LIG101      0.1492
     26  C3       -36.9140   29.7180  -23.5680 C.3   101  LIG101      0.1014
     27  H31      -37.5140   29.0010  -22.9980 H     101  LIG101      0.0638
     28  O3       -37.6380   30.9390  -23.6550 O.3   101  LIG101     -0.3873
     29  H32      -37.4920   31.3290  -22.7640 H     101  LIG101      0.2100
     30  C4       -35.6240   29.9820  -22.7310 C.3   101  LIG101      0.0829
     31  C5       -34.5010   30.7290  -23.4780 C.3   101  LIG101     -0.0244
     32  H51      -34.9090   31.6610  -23.8730 H     101  LIG101      0.0291
     33  H52      -34.1580   30.1450  -24.3320 H     101  LIG101      0.0291
     34  C6       -33.2830   31.0050  -22.5580 C.3   101  LIG101     -0.0506
     35  H61      -32.9990   30.0900  -22.0330 H     101  LIG101      0.0266
     36  H62      -33.5580   31.7410  -21.8000 H     101  LIG101      0.0266
     37  C7       -32.0590   31.5360  -23.3310 C.3   101  LIG101     -0.0530
     38  H71      -31.3160   31.8950  -22.6130 H     101  LIG101      0.0265
     39  H72      -31.6080   30.7180  -23.8980 H     101  LIG101      0.0265
     40  C8       -32.4550   32.6630  -24.3020 C.3   101  LIG101     -0.0531
     41  H81      -32.9530   32.2190  -25.1660 H     101  LIG101      0.0265
     42  H82      -33.1660   33.3340  -23.8100 H     101  LIG101      0.0265
     43  C9       -31.2640   33.4940  -24.7960 C.3   101  LIG101     -0.0531
     44  H91      -30.4990   32.8510  -25.2370 H     101  LIG101      0.0265
     45  H92      -30.8250   34.0320  -23.9530 H     101  LIG101      0.0265
     46  C10      -31.7720   34.4870  -25.8520 C.3   101  LIG101     -0.0531
     47 1H10      -32.0470   33.9360  -26.7540 H     101  LIG101      0.0265
     48 2H10      -32.6690   34.9820  -25.4750 H     101  LIG101      0.0265
     49  C11      -30.7170   35.5410  -26.2090 C.3   101  LIG101     -0.0531
     50 1H11      -29.8470   35.0520  -26.6510 H     101  LIG101      0.0265
     51 2H11      -30.3750   36.0340  -25.3050 H     101  LIG101      0.0265
     52  C12      -31.2940   36.5800  -27.1910 C.3   101  LIG101     -0.0531
     53 1H12      -31.8610   36.0700  -27.9700 H     101  LIG101      0.0265
     54 2H12      -30.4680   37.1010  -27.6760 H     101  LIG101      0.0265
     55  C13      -32.2080   37.6190  -26.5090 C.3   101  LIG101     -0.0531
     56 1H13      -33.0750   37.1350  -26.0570 H     101  LIG101      0.0265
     57 2H13      -31.6510   38.1220  -25.7170 H     101  LIG101      0.0265
     58  C14      -32.6750   38.6550  -27.5490 C.3   101  LIG101     -0.0531
     59 1H14      -31.8030   39.0080  -28.0990 H     101  LIG101      0.0265
     60 2H14      -33.3490   38.1930  -28.2730 H     101  LIG101      0.0265
     61  C15      -33.3400   39.8820  -26.9020 C.3   101  LIG101     -0.0531
     62 1H15      -33.3250   40.6810  -27.6340 H     101  LIG101      0.0265
     63 2H15      -32.7490   40.2160  -26.0460 H     101  LIG101      0.0265
     64  C16      -34.8090   39.6630  -26.4980 C.3   101  LIG101     -0.0533
     65 1H16      -35.4240   39.5920  -27.3960 H     101  LIG101      0.0265
     66 2H16      -34.9210   38.7220  -25.9650 H     101  LIG101      0.0265
     67  C17      -35.2890   40.8340  -25.6120 C.3   101  LIG101     -0.0559
     68 1H17      -34.7360   40.8330  -24.6750 H     101  LIG101      0.0263
     69 2H17      -35.0660   41.7890  -26.0830 H     101  LIG101      0.0263
     70  C18      -36.7960   40.7610  -25.3260 C.3   101  LIG101     -0.0653
     71 1H18      -37.0650   41.4740  -24.5450 H     101  LIG101      0.0230
     72 2H18      -37.3610   41.0070  -26.2240 H     101  LIG101      0.0230
     73 3H18      -37.0860   39.7640  -24.9970 H     101  LIG101      0.0230
     74  C55      -37.1370   21.0290  -27.8540 C.3   101  LIG101      0.0539
     75 1H55      -37.9830   21.1680  -28.5350 H     101  LIG101      0.0543
     76 2H55      -36.3770   20.3910  -28.3160 H     101  LIG101      0.0543
     77  H57      -38.5900   18.6470  -26.9040 H     101  LIG101      0.0628
     78  H59      -39.6810   17.3430  -25.0980 H     101  LIG101      0.0661
     79  H1       -39.4380   18.6980  -21.0330 H     101  LIG101      0.0655
     80  H2       -38.2260   20.7260  -21.7730 H     101  LIG101      0.0640
     81  H64      -36.4390   23.7760  -24.4870 H     101  LIG101      0.0643
     82  C68      -32.9070   27.0410  -24.6370 C.3   101  LIG101     -0.0619
     83 1H68      -32.9880   27.9470  -25.2400 H     101  LIG101      0.0231
     84 2H68      -31.8460   26.8790  -24.4710 H     101  LIG101      0.0231
     85 3H68      -33.3660   27.2240  -23.6640 H     101  LIG101      0.0231
     86  C69      -33.5610   25.8280  -25.3530 C.3   101  LIG101     -0.0140
     87 1H69      -33.0680   25.6820  -26.3130 H     101  LIG101      0.0298
     88 2H69      -33.3560   24.9250  -24.7730 H     101  LIG101      0.0298
     89  C70      -35.1050   25.9380  -25.5500 C.3   101  LIG101      0.1665
     90  C71      -35.5020   27.3290  -26.1210 C.2   101  LIG101      0.2497
     91  C72      -34.7140   25.3770  -28.6110 C.3   101  LIG101      0.0747
     92 1H72      -35.4430   25.9050  -29.2340 H     101  LIG101      0.0609
     93 2H72      -34.1240   26.1300  -28.0920 H     101  LIG101      0.0609
     94  O73      -35.8410   22.9350  -29.5160 O.2   101  LIG101     -0.2673
     95  O74      -35.6560   25.9150  -24.2000 O.3   101  LIG101     -0.3747
     96  H74      -36.6170   26.1670  -24.3020 H     101  LIG101      0.2113
     97  O75      -35.8630   27.5850  -27.2530 O.2   101  LIG101     -0.2723
     98  O76      -33.8240   24.6630  -29.4640 O.3   101  LIG101     -0.3902
     99  H76      -34.3710   23.9140  -29.8300 H     101  LIG101      0.2099
    100  O77      -40.2610   16.7700  -22.6390 O.3   101  LIG101     -0.5067
    101  H77      -40.7260   16.9460  -21.7990 H     101  LIG101      0.2921
    102  H41      -35.2360   29.0190  -22.3820 H     101  LIG101      0.0620
    103  O2       -36.0010   30.7780  -21.5940 O.3   101  LIG101     -0.3892
    104  H3       -35.2490   30.8080  -20.9460 H     101  LIG101      0.2099
@<TRIPOS>BOND
     1    99    98    1
     2    94    16    2
     3    98    91    1
     4    92    91    1
     5    91    93    1
     6    91    15    1
     7    75    74    1
     8    16    15   ar
     9    16     4   ar
    10    76    74    1
    11    60    58    1
    12    59    58    1
    13    53    52    1
    14    74     4    1
    15    74     5    1
    16    54    52    1
    17    15    14   ar
    18    62    61    1
    19    58    61    1
    20    58    55    1
    21     4     3   ar
    22    65    64    1
    23    97    90    2
    24    52    55    1
    25    52    49    1
    26    77     6    1
    27    61    64    1
    28    61    63    1
    29    47    46    1
    30    50    49    1
    31    19    17    1
    32    55    56    1
    33    55    57    1
    34    64    66    1
    35    64    67    1
    36     5     6   ar
    37     5     2   ar
    38    87    86    1
    39    14    13   ar
    40    14    89    1
    41    72    70    1
    42    49    46    1
    43    49    51    1
    44     3    13   ar
    45     3     2    1
    46     6     7   ar
    47    90    89    1
    48    90    24   am
    49    69    67    1
    50    46    48    1
    51    46    43    1
    52    23    22    1
    53    67    70    1
    54    67    68    1
    55    13    81    1
    56    89    86    1
    57    89    95    1
    58     2     1   ar
    59    17    18    1
    60    17    22    1
    61    17    20    1
    62    21    20    1
    63    86    88    1
    64    86    82    1
    65    70    73    1
    66    70    71    1
    67    83    82    1
    68    44    43    1
    69    41    40    1
    70    24    22    1
    71    24    25    1
    72    78     8    1
    73    22    26    1
    74    43    40    1
    75    43    45    1
    76     7     8   ar
    77     7    12   ar
    78    82    84    1
    79    82    85    1
    80     8     9   ar
    81    33    31    1
    82    96    95    1
    83    40    42    1
    84    40    37    1
    85     1    12   ar
    86    39    37    1
    87    32    31    1
    88    12    11   ar
    89    28    26    1
    90    28    29    1
    91    26    27    1
    92    26    30    1
    93    31    30    1
    94    31    34    1
    95    37    38    1
    96    37    34    1
    97     9   100    1
    98     9    10   ar
    99    30   102    1
   100    30   103    1
   101   100   101    1
   102    34    35    1
   103    34    36    1
   104    11    10   ar
   105    11    80    1
   106    10    79    1
   107   103   104    1
